342/IEEE_14_VLN.Txt

SYMMETRICAL COMPONENT VOLTAGES BY BUS (for 3-phase buses)

Bus   Mag:   V1 (kV)    p.u.     V2 (kV)   %V2/V1    V0 (kV)    %V0/V1

b1       0.612       1.06  2.991E-010  4.887E-008 3.981E-011 6.505E-009
b2      0.6035      1.045  2.949E-010  4.887E-008 3.926E-011 6.505E-009
b5       0.593      1.027  2.898E-010  4.887E-008 3.858E-011 6.505E-009
b3      0.5829       1.01  2.848E-010  4.887E-008 3.792E-011 6.505E-009
b4      0.5905      1.023  2.886E-010  4.887E-008 3.842E-011 6.505E-009
b6      0.6003       1.04  2.933E-010  4.887E-008 3.905E-011 6.505E-009
b11     0.5944       1.03  2.905E-010  4.887E-008 3.867E-011 6.505E-009
b12     0.5919      1.025  2.892E-010  4.887E-008 3.85E-011 6.505E-009
b13     0.5892      1.021  2.879E-010  4.887E-008 3.833E-011 6.505E-009
b7      0.6029      1.044  2.946E-010  4.887E-008 3.922E-011 6.505E-009
b8      0.6255      1.083  3.056E-010  4.887E-008 4.069E-011 6.505E-009
b9      0.5968      1.034  2.917E-010  4.887E-008 3.882E-011 6.505E-009
b10     0.5929      1.027  2.898E-010  4.887E-008 3.857E-011 6.505E-009
b14     0.5828      1.009  2.848E-010  4.887E-008 3.791E-011 6.505E-009
