342/IEEE_14_VLN.txt

SYMMETRICAL COMPONENT VOLTAGES BY BUS (for 3-phase buses)

Bus   Mag:   V1 (kV)    p.u.     V2 (kV)   %V2/V1    V0 (kV)    %V0/V1

b1               0.612       1.06  3.981E-11   6.505E-9 3.981E-11  6.505E-9
b2              0.6035      1.045  3.926E-11   6.505E-9 3.926E-11  6.505E-9
b5               0.593      1.027  3.858E-11   6.505E-9 3.858E-11  6.505E-9
b3              0.5829       1.01  3.792E-11   6.505E-9 3.792E-11  6.505E-9
b4              0.5905      1.023  3.842E-11   6.505E-9 3.842E-11  6.505E-9
b6              0.6003       1.04  3.905E-11   6.505E-9 3.905E-11  6.505E-9
b11             0.5944       1.03  3.867E-11   6.505E-9 3.867E-11  6.505E-9
b12             0.5919      1.025   3.85E-11   6.505E-9  3.85E-11  6.505E-9
b13             0.5892      1.021  3.833E-11   6.505E-9 3.833E-11  6.505E-9
b7              0.6029      1.044  3.922E-11   6.505E-9 3.922E-11  6.505E-9
b8              0.6255      1.083  4.069E-11   6.505E-9 4.069E-11  6.505E-9
b9              0.5968      1.034  3.882E-11   6.505E-9 3.882E-11  6.505E-9
b10             0.5929      1.027  3.857E-11   6.505E-9 3.857E-11  6.505E-9
b14             0.5828      1.009  3.791E-11   6.505E-9 3.791E-11  6.505E-9
